Version 4.1
SHEET 1 1584 680
FLAG -1424 -384 0
SYMBOL bv -1424 -544 R0
SYMATTR InstName B1
SYMATTR Value V=1
SYMBOL cap -1312 -512 R0
SYMATTR InstName C1
SYMATTR Value 10µ
SYMBOL diode -1232 -512 R0
SYMATTR InstName D1
SYMATTR Value 1N914
SYMBOL e -1088 -544 R0
SYMATTR InstName E1
SYMATTR Value 1
SYMBOL f -992 -528 R0
SYMATTR InstName F1
SYMATTR Value I1
SYMBOL g -880 -544 R0
SYMATTR InstName G1
SYMATTR Value 1
SYMBOL h -784 -544 R0
SYMATTR InstName H1
SYMATTR Value I1
SYMBOL current -672 -528 R0
WINDOW 123 0 0 Left 0
WINDOW 39 0 0 Left 0
SYMATTR InstName I1
SYMATTR Value 1
SYMBOL njf -608 -528 R0
SYMATTR InstName J1
SYMATTR Value 2N3819
SYMBOL ind2 -448 -544 R0
SYMATTR InstName L2
SYMATTR Value 1
SYMBOL ind2 -368 -544 R0
SYMATTR InstName L3
SYMATTR Value 1
SYMBOL ind -256 -544 R0
SYMATTR InstName L1
SYMATTR Value 1
SYMBOL nmos -160 -528 R0
SYMATTR InstName M1
SYMATTR Value BSP89
SYMBOL ltline 48 -480 R0
SYMATTR InstName O1
SYMBOL npn 160 -528 R0
SYMATTR InstName Q1
SYMATTR Value 2N2222
SYMBOL res 320 -544 R0
SYMATTR InstName R1
SYMATTR Value 1
SYMBOL sw 480 -544 R0
SYMATTR InstName S1
SYMBOL tline 656 -496 R0
SYMATTR InstName T1
SYMBOL Misc\\urc 848 -544 R0
SYMATTR InstName U2
SYMBOL voltage 992 -560 R0
WINDOW 123 0 0 Left 0
WINDOW 39 0 0 Left 0
SYMATTR InstName V1
SYMATTR Value 1
SYMBOL csw 1104 -544 R0
SYMATTR InstName W1
SYMATTR Value CSW W
SYMBOL OpAmps\\AD549 1248 -576 R0
SYMATTR InstName U1
SYMBOL mesfet 1360 -560 R0
SYMATTR InstName Z1
TEXT -448 -568 Left 2 !K1 L2 L3 1
TEXT 1168 -592 Left 2 ;This is XU1
