Version 4
SHEET 1 880 680
WIRE -48 144 -128 144
WIRE 32 144 -48 144
WIRE 192 144 112 144
WIRE 288 144 192 144
FLAG -48 208 0
FLAG 192 208 0
FLAG -128 144 IN
FLAG 288 144 OUT
SYMBOL cap 176 144 R0
SYMATTR InstName C1
SYMATTR Value 10n
SYMBOL cap -64 144 R0
SYMATTR InstName C2
SYMATTR Value 10n
SYMBOL ind 16 160 R270
SYMATTR InstName L1
SYMATTR Value 1µH
