Version 4.1
SHEET 1 880 680
WIRE 176 128 -16 128
WIRE -16 144 -16 128
WIRE 320 144 256 144
WIRE 176 160 80 160
WIRE 80 176 80 160
FLAG 96 64 0
FLAG 208 96 vcc
FLAG 96 -16 vcc
FLAG 320 224 0
FLAG -16 224 0
FLAG 80 256 0
SYMBOL LTSpice\ Library\ with\ \ spaces\\logic_and 176 112 R0
SYMATTR InstName X1
SYMBOL voltage 96 -32 R0
WINDOW 3 46 43 Left 2
SYMATTR InstName V1
SYMATTR Value {vlogic}
SYMBOL res 304 128 R0
SYMATTR InstName R1
SYMATTR Value 10k
SYMBOL voltage -16 128 R0
WINDOW 3 -40 163 Left 2
WINDOW 123 0 0 Left 0
WINDOW 39 0 0 Left 0
SYMATTR InstName V2
SYMATTR Value PULSE(0 {vlogic} 1u 1n 1n 1u 2u 2)
SYMBOL voltage 80 160 R0
WINDOW 123 0 0 Left 0
WINDOW 39 0 0 Left 0
SYMATTR InstName V3
SYMATTR Value PULSE(0 {vlogic} 2u 1n 1n 2u 4u 1)
TEXT 208 376 Left 2 !.tran 4u
TEXT 8 336 Left 2 !.param vlogic=5
