* DIODES INCORPORATED AND ITS AFFILIATED COMPANIES AND SUBSIDIARIES (COLLECTIVELY, "DIODES") 
* PROVIDE THESE SPICE MODELS AND DATA (COLLECTIVELY, THE "SM DATA") "AS IS" AND WITHOUT ANY 
* REPRESENTATIONS OR WARRANTIES, EXPRESS OR IMPLIED, INCLUDING ANY WARRANTY OF MERCHANTABILITY 
* OR FITNESS FOR A PARTICULAR PURPOSE, ANY WARRANTY ARISING FROM COURSE OF DEALING OR COURSE OF 
* PERFORMANCE, OR ANY WARRANTY THAT ACCESS TO OR OPERATION OF THE SM DATA WILL BE UNINTERRUPTED, 
* OR THAT THE SM DATA OR ANY SIMULATION USING THE SM DATA WILL BE ERROR FREE. TO THE MAXIMUM 
* EXTENT PERMITTED BY LAW, IN NO EVENT WILL DIODES BE LIABLE FOR ANY DIRECT OR INDIRECT, 
* SPECIAL, INCIDENTAL, PUNITIVE OR CONSEQUENTIAL DAMAGES ARISING OUT OF OR IN CONNECTION WITH 
* THE PRODUCTION OR USE OF SM DATA, HOWEVER CAUSED AND UNDER WHATEVER CAUSE OF ACTION OR THEORY 
* OF LIABILITY BROUGHT (INCLUDING, WITHOUT LIMITATION, UNDER ANY CONTRACT, NEGLIGENCE OR OTHER 
* TORT THEORY OF LIABILITY), EVEN IF DIODES HAS BEEN ADVISED OF THE POSSIBILITY OF SUCH DAMAGES, 
* AND DIODES' TOTAL LIABILITY (WHETHER IN CONTRACT, TORT OR OTHERWISE) WITH REGARD TO THE SM 
* DATA WILL NOT, IN THE AGGREGATE, EXCEED ANY SUMS PAID BY YOU TO DIODES FOR THE SM DATA.



*---------- DMN61D9UDWQ Spice Model ----------
.SUBCKT DMN61D9UDWQ 10 20 30 
* TERMINALS : D G S
* MODEL FORMAT : SPICE3
* Editor : J
M1 1 2 3 3 NMOS L = 1E-005 W = 1E-005 
RD 10 1 1.2 
RS 30 3 0.0001 
RG 20 2 238.3 
CGS 2 3 3.122E-011 
EGD 12 0 2 1 1 
VFB 14 0 0 
FFB 2 1 VFB 1 
CGD 13 14 7.8E-011 
R1 13 0 1 
D1 12 13 DLIM 
DDG 15 14 DCGD 
R2 12 15 1 
D2 15 0 DLIM 
DSD 3 10 DSUB 
.MODEL NMOS NMOS LEVEL = 3 VMAX = 1E+005 ETA = 0 VTO = 0.95 
+ TOX = 1E-007 NSUB = 1E+015 KP = 0.95 U0 = 400 KAPPA = 0.2 IS = 0 
.MODEL DCGD D CJO = 2.439E-011 VJ = 0.8 M = 0.35 
.MODEL DSUB D IS = 2.8E-009 N = 1.527 RS = 0.2046 BV = 73.19 
+ CJO = 1.915E-011 VJ = 0.9 M = 0.3 XTI = 0 TT = 9.9E-009 
.MODEL DLIM D IS = 0.0001 
.ENDS
*Diodes Spice Model v1.1 Last Revised 2021/06/21