Version 4
SHEET 1 880 680
TEXT 0 0 Left 2 ;.tran 0 1m 0 100n uic
TEXT 0 100 Left 2 ;.model D D(Ron=1m Roff=1Meg Vfwd=0.8)
TEXT 0 200 Left 2 ;.param R = 100
TEXT 0 300 Left 2 ;.option SavePowers
TEXT 0 400 Left 2 !.ac test
TEXT 0 600 Left 2 !.param R = 1Meg
TEXT 0 724 Left 2 !.option blabla
