Version 4
SHEET 1 880 680
WIRE 96 96 16 96
WIRE 272 96 176 96
WIRE 512 96 400 96
WIRE 16 112 16 96
FLAG 16 192 0
FLAG 512 176 0
SYMBOL voltage 16 96 R0
WINDOW 123 0 0 Left 0
WINDOW 39 0 0 Left 0
SYMATTR InstName V1
SYMATTR Value PULSE(0 1 1n 1n 1n {0.5/freq} {1/freq} 10)
SYMBOL res 192 80 R90
WINDOW 0 0 56 VBottom 2
WINDOW 3 32 56 VTop 2
SYMATTR InstName R1
SYMATTR Value 11
SYMBOL sub_circuit 272 96 R0
WINDOW 0 4 40 Left 2
SYMATTR InstName X1
SYMBOL res 496 80 R0
SYMATTR InstName R2
SYMATTR Value 100k
TEXT 80 248 Left 2 !.tran 2u
TEXT 16 272 Left 2 !.param freq=1Meg
TEXT 16 296 Left 2 !.param test_exiting_param_set1=24
TEXT 16 320 Left 2 !.param test_exiting_param_set2=25
TEXT 16 344 Left 2 !.param test_exiting_param_set3=26
TEXT 16 368 Left 2 !.param test_exiting_param_set4=27
TEXT 16 392 Left 2 !.param test_add_parameter=34.45
